FoamFile
{
    version	 2.0;
    format	 ascii;
    class	 dictionary;
    object	 blockMeshDict;
}

/*
Automatically generated with ./generateMeshDict_cylinder.pl
*/

convertToMeters	 1.0;

vertices
(
    ( -2  0.8 -0.2 ) //0
    ( -0.2   0.8 -0.2 ) //1
    (  0.2   0.8 -0.2 ) //2
    (  2  0.8 -0.2 ) //3
    ( -2  0.2 -0.2 ) //4
    ( -0.2   0.2 -0.2 ) //5
    (  0.2   0.2 -0.2 ) //6
    (  2  0.2 -0.2 ) //7
    ( -2  -0.2 -0.2 ) //8
    ( -0.2   -0.2 -0.2 ) //9
    (  0.2   -0.2 -0.2 ) //10
    (  2  -0.2 -0.2 ) //11
    ( -2  -0.8 -0.2 ) //12
    ( -0.2   -0.8 -0.2 ) //13
    (  0.2   -0.8 -0.2 ) //14
    (  2  -0.8 -0.2 ) //15
    ( -2  0.8 0.4 ) //16
    ( -0.2   0.8 0.4 ) //17
    (  0.2   0.8 0.4 ) //18
    (  2  0.8 0.4 ) //19
    ( -2  0.2 0.4 ) //20
    ( -0.2   0.2 0.4 ) //21
    (  0.2   0.2 0.4 ) //22
    (  2  0.2 0.4 ) //23
    ( -2  -0.2 0.4 ) //24
    ( -0.2   -0.2 0.4 ) //25
    (  0.2   -0.2 0.4 ) //26
    (  2  -0.2 0.4 ) //27
    ( -2  -0.8 0.4 ) //28
    ( -0.2   -0.8 0.4 ) //29
    (  0.2   -0.8 0.4 ) //30
    (  2  -0.8 0.4 ) //31
    ( -0.0353553390593274   0.0353553390593274 -0.2 ) //32
    (  0.0353553390593274   0.0353553390593274 -0.2 ) //33
    ( -0.0353553390593274   -0.0353553390593274 -0.2 ) //34
    (  0.0353553390593274   -0.0353553390593274 -0.2 ) //35
    ( -0.0353553390593274   0.0353553390593274 0.4 ) //36
    (  0.0353553390593274   0.0353553390593274 0.4 ) //37
    ( -0.0353553390593274   -0.0353553390593274 0.4 ) //38
    (  0.0353553390593274   -0.0353553390593274 0.4 ) //39
);

blocks
(
    hex (4 5 1 0 20 21 17 16) (36 12 24) simpleGrading (1 1 1) //0
    hex (5 6 2 1 21 22 18 17) (8 12 24) simpleGrading (1 1 1) //1
    hex (6 7 3 2 22 23 19 18) (36 12 24) simpleGrading (1 1 1) //2
    hex (8 9 5 4 24 25 21 20) (36 8 24) simpleGrading (1 1 1) //3
    hex (10 11 7 6 26 27 23 22) (36 8 24) simpleGrading (1 1 1)//4
    hex (12 13 9 8 28 29 25 24) (36 12 24) simpleGrading (1 1 1)//5
    hex (13 14 10 9 29 30 26 25) (8 12 24) simpleGrading (1 1 1)//6
    hex (14 15 11 10 30 31 27 26) (36 12 24) simpleGrading (1 1 1)//7
    hex (32 33 6 5 36 37 22 21) (8 8 24) simpleGrading (1 4 1)
    hex (35 10 6 33 39 26 22 37) (8 8 24) simpleGrading (4 1 1)
    hex (9 10 35 34 25 26 39 38) (8 8 24) simpleGrading (1 0.25 1)
    hex (9 34 32 5 25 38 36 21) (8 8 24) simpleGrading (0.25 1 1)
);

edges
(
    arc 32 33 ( 0 0.05 -0.2 )
    arc 33 35 ( 0.05 0 -0.2 )
    arc 34 35 ( 0 -0.05 -0.2 )
    arc 34 32 ( -0.05 0 -0.2 )
    arc 36 37 ( 0 0.05 0.4 )
    arc 39 37 ( 0.05 0 0.4 )
    arc 38 39 ( 0 -0.05 0.4 )
    arc 38 36 ( -0.05 0 0.4 )
);

boundary
(
    inlet
    {
        type patch;
        faces
        (
          (4 20 16 0)
          (8 24 20 4)
          (12 28 24 8)
        );
    }

    cylinder
    {
        type wall;
        faces
        (
          (32 36 37 33)
          (33 37 39 35)
          (35 39 38 34)
          (34 38 36 32)
        );
    }
    outlet
    {
        type patch;
        faces
        (
          (3 19 23 7)
          (7 23 27 11)
          (11 27 31 15)
        );
    }
    frontAndBack
    {
        type patch;
        faces
        (
          (16 17 1 0)
          (17 18 2 1)
          (18 19 3 2)
          (12 13 29 28)
          (13 14 30 29)
          (14 15 31 30)
        );
    }
    bottom
    {
        type wall;
        faces
        (
        (0 1 5 4)
        (1 2 6 5)
        (2 3 7 6)
        (4 5 9 8)
        (6 7 11 10)
        (8 9 13 12)
        (9 10 14 13)
        (10 11 15 14)
        (5 6 33 32)
        (6 10 35 33)
        (34 35 10 9)
        (5 32 34 9)
        );
    }
    top
    {
        type symmetryPlane;
        faces 
        (
        (20 21 17 16)
        (21 22 18 17)
        (22 23 19 18)
        (24 25 21 20)
        (26 27 23 22)
        (28 29 25 24)
        (29 30 26 25)
        (30 31 27 26)
        (36 37 22 21)
        (39 26 22 37)
        (25 26 39 38)
        (25 38 36 21)
        );
    }
);

mergPatchPairs
(
);
