/*--------------------------------*- C++ -*----------------------------------*\
| =========                 |                                                 |
| \\      /  F ield         | OpenFOAM: The Open Source CFD Toolbox           |
|  \\    /   O peration     | Version:  5                                     |
|   \\  /    A nd           | Web:      www.OpenFOAM.org                      |
|    \\/     M anipulation  |                                                 |
\*---------------------------------------------------------------------------*/
FoamFile
{
    version     2.0;
    format      ascii;
    class       dictionary;
    location    "system";
    object      controlDict;
}
// * * * * * * * * * * * * * * * * * * * * * * * * * * * * * * * * * * * * * //
DebugSwitches
{
   timeVaryingMappedPerturbationFixedValue 1;
}


application     scourPimpleDyMFoam;

startFrom       latestTime;

startTime       0;

stopAt          endTime;

endTime         1500;

deltaT          0.001;

//writeControl    timeStep;
writeControl    adjustableRunTime;

writeInterval   5;
//writeInterval   10;

purgeWrite      0;

writeFormat     ascii;

writePrecision  6;

writeCompression off;

timeFormat      general;

timePrecision   6;

runTimeModifiable true;

adjustTimeStep  yes;

maxCo           1;

libs
(
  "libSediment.so"
);
/*
functions
{
    totalSedimentation
    {
        type            surfaceFieldValue;
        libs            ("libfieldFunctionObjects.so");

	enabled		true;

        log             true;
        writeControl    timeStep;
        //writeControl    writeTime;
        writeFields     false;

        regionType      patch;
        name            bed;

        operation       sumDirection;
	direction       (0 -1 0);
        fields          (fluidFaceCenterHeigh);
    }

    totalErosion
    {
        type            surfaceFieldValue;
        libs            ("libfieldFunctionObjects.so");

	enabled		true;
        log             true;
        writeControl    timeStep;
        //writeControl    writeTime;
        writeFields     false;

        regionType      patch;
        name            bed;

        operation       sumDirection;
        direction       (0 1 0);
        fields          (fluidFaceCenterHeigh);
    }

    sedimentMassBalance
    {
        type            surfaceFieldValue;
        libs            ("libfieldFunctionObjects.so");

	enabled		true;
        log             true;
        writeControl    timeStep;
        //writeControl    writeTime;
        writeFields     false;
        writeArea 	true;

        regionType      patch;
        name            bed;

        operation       sumDirectionBalance;
        direction       (0 -1 0);
        fields          (fluidFaceCenterHeigh);
    }

}*/
// ************************************************************************* //
