/*--------------------------------*- C++ -*----------------------------------*\
| =========                 |                                                 |
| \\      /  F ield         | OpenFOAM: The Open Source CFD Toolbox           |
|  \\    /   O peration     | Version:  5                                     |
|   \\  /    A nd           | Web:      www.OpenFOAM.org                      |
|    \\/     M anipulation  |                                                 |
\*---------------------------------------------------------------------------*/
FoamFile
{
    version     2.0;
    format      ascii;
    class       dictionary;
    location    "system";
    object      controlDict;
}
// * * * * * * * * * * * * * * * * * * * * * * * * * * * * * * * * * * * * * //


    totalSedimentation
    {
        type            surfaceFieldValue;
        libs            ("libfieldFunctionObjects.so");

        log             true;
        writeControl    timeStep;
        //writeControl    writeTime;
        writeFields     false;

        regionType      patch;
        name            bed;

        operation       sumDirection;
	direction       (0 -1 0);
        fields          (fluidFaceCenterHeigh);
    }


// ************************************************************************* //
