/*--------------------------------*- C++ -*----------------------------------*\
  | =========                 |                                                 |
  | \\      /  F ield         | OpenFOAM: The Open Source CFD Toolbox           |
  |  \\    /   O peration     | Version:  dev                                   |
  |   \\  /    A nd           | Web:      http://www.OpenFOAM.org               |
  |    \\/     M anipulation  |                                                 |
  \*---------------------------------------------------------------------------*/
FoamFile
{
	version     2.0;
	format      ascii;
	class       dictionary;
	object      motionProperties;
}
// * * * * * * * * * * * * * * * * * * * * * * * * * * * * * * * * * * * * * //
//dynamicFvMesh      staticFvMesh;


dynamicFvMesh   dynamicMotionSolverFvMesh;

motionSolverLibs ("libfvMotionSolvers.so");

//motionSolver displacementSBRStress;
motionSolver    displacementLaplacian;
//motionSolver            displacementComponentLaplacian;

//diffusivity quadratic inverseDistance 2(bed cylinder);

displacementLaplacianCoeffs
{
	// diffusivity  uniform;
	// diffusivity  directional (1 2000 1);
	// diffusivity  motionDirectional (1 1000 0);
	// diffusivity  file motionDiffusivity;
	diffusivity quadratic inverseDistance 1(bed);
}




// ************************************************************************* //
