/*--------------------------------*- C++ -*----------------------------------*\
| =========                 |                                                 |
| \\      /  F ield         | OpenFOAM: The Open Source CFD Toolbox           |
|  \\    /   O peration     | Version:  5.x                                   |
|   \\  /    A nd           | Web:      www.OpenFOAM.org                      |
|    \\/     M anipulation  |                                                 |
\*---------------------------------------------------------------------------*/
FoamFile
{
    version     2.0;
    format      ascii;
    class       polyBoundaryMesh;
    location    "constant/polyMesh";
    object      boundary;
}
// * * * * * * * * * * * * * * * * * * * * * * * * * * * * * * * * * * * * * //

6
(
    bed
    {
        type            wall;
        physicalType    patch;
        nFaces          27120;
        startFace       2674560;
    }
    top
    {
        type            patch;
        physicalType    patch;
        nFaces          27120;
        startFace       2701680;
    }
    sides
    {
        type            patch;
        physicalType    patch;
        nFaces          9280;
        startFace       2728800;
    }
    inlet
    {
        type            patch;
        physicalType    patch;
        nFaces          3440;
        startFace       2738080;
    }
    cylinder
    {
        type            wall;
        physicalType    patch;
        nFaces          4480;
        startFace       2741520;
    }
    outlet
    {
        type            patch;
        physicalType    patch;
        nFaces          3440;
        startFace       2746000;
    }
)

// ************************************************************************* //
