/*--------------------------------*- C++ -*----------------------------------*\
| =========                 |                                                 |
| \\      /  F ield         | OpenFOAM: The Open Source CFD Toolbox           |
|  \\    /   O peration     | Version:  dev                                   |
|   \\  /    A nd           | Web:      www.OpenFOAM.org                      |
|    \\/     M anipulation  |                                                 |
\*---------------------------------------------------------------------------*/
FoamFile
{
    version     2.0;
    format      ascii;
    class       dictionary;
    location    "constant";
    object      transportProperties;
}
// * * * * * * * * * * * * * * * * * * * * * * * * * * * * * * * * * * * * * //

//diffusivity
K0              K0 [0 2 -1 0 0 0 0] 0.001;

//friction angle
angle0           angle0 [0 0 0 0 0 0 0] 35;

//gradient scheme
gradientScheme   GNGS;   //LGS or GNGS or LGS+GNGS

// ************************************************************************* //
