/*--------------------------------*- C++ -*----------------------------------*\
| =========                 |                                                 |
| \\      /  F ield         | OpenFOAM: The Open Source CFD Toolbox           |
|  \\    /   O peration     | Version:  v1812                                 |
|   \\  /    A nd           | Web:      www.OpenFOAM.com                      |
|    \\/     M anipulation  |                                                 |
\*---------------------------------------------------------------------------*/
FoamFile
{
    version     2.0;
    format      ascii;
    class       edgeScalarField;
    location    "0";
    object      faeGradZb;
}
// * * * * * * * * * * * * * * * * * * * * * * * * * * * * * * * * * * * * * //

dimensions          [0 0 0 0 0 0 0];

internalField       uniform 0.0;

boundaryField
{
    inlet
    {
        type calculated;
	value uniform 0;
    }

    outlet
    {
        type calculated;
	value uniform 0;
    }

    sides
    {
        type calculated;
	value uniform 0;
    }
    cylinder 
    {
        type calculated;
        value uniform 0;
    }
}

// * * * * * * * * * * * * * * * * * * * * * * * * * * * * * * * * * * * * * //
