/*--------------------------------*- C++ -*----------------------------------*\
| =========                 |                                                 |
| \\      /  F ield         | OpenFOAM: The Open Source CFD Toolbox           |
|  \\    /   O peration     | Version:  v1812                                 |
|   \\  /    A nd           | Web:      www.OpenFOAM.com                      |
|    \\/     M anipulation  |                                                 |
\*---------------------------------------------------------------------------*/
FoamFile
{
    version     2.0;
    format      ascii;
    class       pointVectorField;
    location    "0";
    object      pointDisplacement;
}
// * * * * * * * * * * * * * * * * * * * * * * * * * * * * * * * * * * * * * //

dimensions      [0 1 0 0 0 0 0];


internalField   uniform (0 0 0);

boundaryField
{
    bed
    {
        type            erodibleBedDisplacement;
	frozenArea	true;
	x0		-0.12;
        value           uniform (0 0 0);
    }
    inlet
    {
        type            slip;
    }
    outlet
    {
        type            slip;
    }
    top
    {
        type            fixedValue;
        value           uniform (0 0 0);
    }
    sides
    {
        type            slip;
    }
    cylinder
    {
        type            slip;
    }
}


// ************************************************************************* //
